Circuit: * C:\Ecole\S4\S4_APP4_Info\s4iapp4_prob\add3b_test.asc

WARNING: Less than two connections to node SEL.  This node is used by VSEL.

Date: Fri Jul 04 13:56:06 2025
Total elapsed time: 0.182 seconds.

tnom = 27
temp = 27
method = trap
totiter = 243
traniter = 0
tranpoints = 0
accept = 0
rejected = 0
matrix size = 91
fillins = 38
solver = Normal

