Circuit: * D:\Devoir ecole\Universiter\Session4_2025\App4\Prob\S4_APP4_Info\s4iapp4_prob\add3b_test.asc

WARNING: Less than two connections to node sel.  This node is used by vsel.

Date: Sun Jul  6 23:10:45 2025
Total elapsed time: 0.084 seconds.

tnom = 27
temp = 27
method = trap
totiter = 214
traniter = 0
tranpoints = 0
accept = 0
rejected = 0
matrix size = 91
fillins = 38
solver = Normal
Avg thread counts: 16.0/0.0/16.0/16.0
Matrix Compiler1: 11.61 KB object code size  2.0/1.0/[0.9]
Matrix Compiler2: 11.35 KB object code size  1.1/1.0/[0.7]

