Circuit: * D:\Devoir ecole\Universiter\Session4_2025\App4\Prob\S4_APP4_Info\s4iapp4_prob\alu_test_trans_delai.asc

Direct Newton iteration for .op point succeeded.

t1: time=3.71177e-09 at 3.71177e-09
t2: time=3.80682e-09 at 3.80682e-09
t3: time=1.05663e-08 at 1.05663e-08
t4: time=1.06613e-08 at 1.06613e-08

Measurement "t5" FAIL'ed

Measurement "t6" FAIL'ed
transition_up_and: abs(t2-t1)=9.50477e-11
transition_up_add: abs(t4-t3)=9.50737e-11

Measurement "ratio" FAIL'ed

Measurement "propagation" FAIL'ed

Measurement "propagationfall" FAIL'ed


Date: Sun Jul  6 22:27:28 2025
Total elapsed time: 0.755 seconds.

tnom = 27
temp = 27
method = modified trap
totiter = 6928
traniter = 6900
tranpoints = 2752
accept = 2483
rejected = 269
matrix size = 142
fillins = 40
solver = Normal
Avg thread counts: 8.5/4.2/4.3/1.9
Matrix Compiler1: 18.01 KB object code size  4.3/2.1/[1.5]
Matrix Compiler2: 17.93 KB object code size  1.9/2.1/[1.2]

