Circuit: * D:\Devoir ecole\Universiter\Session4_2025\App4\Prob\S4_APP4_Info\s4iapp4_prob\alu_test_trans.asc

Direct Newton iteration for .op point succeeded.

Date: Sun Jul  6 21:34:50 2025
Total elapsed time: 0.809 seconds.

tnom = 27
temp = 27
method = modified trap
totiter = 8480
traniter = 8446
tranpoints = 3190
accept = 2706
rejected = 484
matrix size = 154
fillins = 40
solver = Normal
Avg thread counts: 9.4/4.1/4.1/1.7
Matrix Compiler1: 18.28 KB object code size  4.4/2.6/[1.4]
Matrix Compiler2: 18.75 KB object code size  2.1/2.4/[1.1]

