Circuit: * D:\Devoir ecole\Universiter\Session4_2025\App4\Prob\S4_APP4_Info\s4iapp4_prob\alu_test_trans.asc

Direct Newton iteration for .op point succeeded.

Date: Sun Jul  6 23:20:22 2025
Total elapsed time: 0.755 seconds.

tnom = 27
temp = 27
method = modified trap
totiter = 8450
traniter = 8416
tranpoints = 3162
accept = 2704
rejected = 458
matrix size = 157
fillins = 40
solver = Normal
Avg thread counts: 11.2/4.1/4.1/1.7
Matrix Compiler1: 18.57 KB object code size  3.6/2.1/[1.3]
Matrix Compiler2: 19.13 KB object code size  2.1/2.2/[1.1]

