Circuit: * D:\Devoir ecole\Universiter\Session4_2025\App4\Prob\S4_APP4_Info\s4iapp4_prob\alu_test_dc.asc

WARNING: Node X1:X3:N017 is floating.
WARNING: Node X1:X3:N019 is floating.


Date: Sat Jul  5 17:39:19 2025
Total elapsed time: 0.142 seconds.

tnom = 27
temp = 27
method = trap
totiter = 260
traniter = 0
tranpoints = 0
accept = 0
rejected = 0
matrix size = 166
fillins = 40
solver = Normal
Avg thread counts: 14.7/0.0/16.0/14.7
Matrix Compiler1: 18.10 KB object code size  3.9/2.4/[1.4]
Matrix Compiler2: 20.08 KB object code size  2.2/2.2/[1.4]

