Circuit: * C:\Ecole\S4\S4_APP4_Info\s4iapp4_prob\and3b_test.asc

WARNING: Less than two connections to node SEL.  This node is used by VSEL.

Date: Fri Jul 04 12:40:15 2025
Total elapsed time: 0.079 seconds.

tnom = 27
temp = 27
method = trap
totiter = 85
traniter = 0
tranpoints = 0
accept = 0
rejected = 0
matrix size = 34
fillins = 0
solver = Normal
Matrix Compiler1: 1.37 KB object code size
Matrix Compiler2: 2.83 KB object code size
