Circuit: * D:\Devoir ecole\Universiter\Session4_2025\App4\Prob\S4_APP4_Info\s4iapp4_prob\and3b_test.asc

WARNING: Less than two connections to node sel.  This node is used by vsel.

Date: Sun Jul  6 20:13:34 2025
Total elapsed time: 0.053 seconds.

tnom = 27
temp = 27
method = trap
totiter = 72
traniter = 0
tranpoints = 0
accept = 0
rejected = 0
matrix size = 31
fillins = 0
solver = Normal
Avg thread counts: 16.0/0.0/16.0/16.0
Matrix Compiler1: 1.24 KB object code size
Matrix Compiler2: 2.50 KB object code size
