Circuit: * C:\Users\gratt\Documents\Uni\Session4\App4\S4_APP4_Info\s4iapp4_prob\inv_test.asc

Direct Newton iteration for .op point succeeded.

t1: time=3.21441e-010 at 3.21441e-010
t2: time=3.88435e-010 at 3.88435e-010
t3: time=8.00079e-011 at 8.00079e-011
t4: time=2.29411e-011 at 2.29411e-011
uptime: abs(t2-t1)=6.69941e-011
downtime: abs(t4-t3)=5.70668e-011
upslope: abs( 1.62 - 0.18 )/abs(t2-t1)=2.14944e+010
downslope: abs( 1.62 - 0.18 )/abs(t4-t3)=2.52336e+010
ratio: upslope/downslope=0.851819


Date: Wed Jul 02 14:45:34 2025
Total elapsed time: 0.184 seconds.

tnom = 27
temp = 27
method = modified trap
totiter = 2222
traniter = 2216
tranpoints = 1105
accept = 1094
rejected = 11
matrix size = 5
fillins = 0
solver = Normal
Matrix Compiler1: 204 bytes object code size  0.1/0.1/[0.1]
Matrix Compiler2:      28 opcodes  0.1/[0.1]/0.1

