Circuit: * D:\Devoir ecole\Universiter\Session4_2025\App4\Prob\S4_APP4_Info\s4iapp4_prob\inv_test.asc

Direct Newton iteration for .op point succeeded.

t1: time=3.20836e-10 at 3.20836e-10
t2: time=3.8299e-10 at 3.8299e-10
t3: time=8.18799e-11 at 8.18799e-11
t4: time=2.36259e-11 at 2.36259e-11
uptime: abs(t2-t1)=6.21534e-11
downtime: abs(t4-t3)=5.8254e-11
upslope: abs( 1.62 - 0.18 )/abs(t2-t1)=2.31685e+10
downslope: abs( 1.62 - 0.18 )/abs(t4-t3)=2.47193e+10
ratio: upslope/downslope=0.937263


Date: Sun Jul  6 11:06:50 2025
Total elapsed time: 0.105 seconds.

tnom = 27
temp = 27
method = modified trap
totiter = 2222
traniter = 2216
tranpoints = 1105
accept = 1094
rejected = 11
matrix size = 5
fillins = 0
solver = Normal
Avg thread counts: 3.7/6.3/6.3/3.7
Matrix Compiler1:       8 opcodes  0.1/[0.0]/0.1
Matrix Compiler2: 335 bytes object code size  0.1/0.1/[0.1]

