Circuit: * C:\Ecole\S4\S4_APP4_Info\s4iapp4_prob\mux2x3b_test.asc

WARNING: Node X2:N017 is floating.
WARNING: Node X2:N019 is floating.

Direct Newton iteration for .op point succeeded.

Date: Fri Jul 04 12:13:49 2025
Total elapsed time: 0.180 seconds.

tnom = 27
temp = 27
method = modified trap
totiter = 2591
traniter = 2575
tranpoints = 1099
accept = 1081
rejected = 18
matrix size = 74
fillins = 22
solver = Normal
Thread vector: 26.9/19.7[6] 4.5/5.5[1] 1.5/1.7[1] 0.2/2.5[1]  2592/500
Matrix Compiler1: 6.80 KB object code size  1.0/0.5/[0.3]
Matrix Compiler2: 7.83 KB object code size  0.4/0.6/[0.3]

