Circuit: * D:\Devoir ecole\Universiter\Session4_2025\App4\Prob\S4_APP4_Info\s4iapp4_prob\mux2x3b_test.asc

Direct Newton iteration for .op point succeeded.

Date: Sun Jul  6 21:48:31 2025
Total elapsed time: 0.173 seconds.

tnom = 27
temp = 27
method = modified trap
totiter = 2640
traniter = 2622
tranpoints = 1099
accept = 1081
rejected = 18
matrix size = 52
fillins = 0
solver = Normal
Avg thread counts: 4.9/6.3/6.4/3.2
Matrix Compiler1: 3.44 KB object code size  0.8/0.5/[0.3]
Matrix Compiler2: 5.25 KB object code size  0.5/0.7/[0.3]

