Circuit: * D:\Devoir ecole\Universiter\Session4_2025\App4\Prob\S4_APP4_Info\s4iapp4_prob\nand_test_Vm.asc

WARNING: Less than two connections to node nc_01.  This node is used by v2.

vil: d(v(out))=-1 AT 0.85903
vih: d(v(out))=-1 AT 1.26926
vi_mid: (vil+vih)/2=1.06414


Date: Sun Jul  6 11:18:56 2025
Total elapsed time: 0.073 seconds.

tnom = 27
temp = 27
method = trap
totiter = 368
traniter = 0
tranpoints = 0
accept = 0
rejected = 0
matrix size = 8
fillins = 0
solver = Normal
Avg thread counts: 12.8/0.0/16.0/12.8
Matrix Compiler1:      14 opcodes  0.1/[0.1]/0.1
Matrix Compiler2: off  [0.1]/0.1/0.1

