Circuit: * D:\Devoir ecole\Universiter\Session4_2025\App4\Prob\S4_APP4_Info\s4iapp4_prob\nand_test.asc

Direct Newton iteration for .op point succeeded.

t1: time=3.01765e-09 at 3.01765e-09
t2: time=3.1497e-09 at 3.1497e-09
t3: time=2.10051e-09 at 2.10051e-09
t4: time=2.0134e-09 at 2.0134e-09
transition_up: abs(t2-t1)=1.32047e-10
transition_down: abs(t4-t3)=8.71124e-11
ratio: transition_up/transition_down=1.51583
vil: d(v(out))=-1 AT 2.001e-09
vih: d(v(out))=-1g AT 2.15192e-09
vi_mid: (vil+vih)/2/vv=1.15359e-09


Date: Sun Jul  6 11:13:37 2025
Total elapsed time: 0.093 seconds.

tnom = 27
temp = 27
method = modified trap
totiter = 2585
traniter = 2579
tranpoints = 1244
accept = 1177
rejected = 67
matrix size = 8
fillins = 0
solver = Normal
Avg thread counts: 4.3/5.7/5.7/3.3
Matrix Compiler1:      17 opcodes  0.1/[0.1]/0.1
Matrix Compiler2: 642 bytes object code size  0.1/0.1/[0.1]

