Circuit: * C:\Users\gratt\Documents\Uni\Session4\App4\S4_APP4_Info\s4iapp4_prob\nand_test.asc

Direct Newton iteration for .op point succeeded.

t1: time=3.01615e-009 at 3.01615e-009
t2: time=3.12915e-009 at 3.12915e-009
t3: time=2.08664e-009 at 2.08664e-009
t4: time=2.0146e-009 at 2.0146e-009
transition_up: abs(t2-t1)=1.12999e-010
transition_down: abs(t4-t3)=7.20415e-011
ratio: transition_up/transition_down=1.56852
vil: d(v(out))=-1 AT 2.001e-009
vih: d(v(out))=-1g AT 2.13168e-009
vi_mid: (vil+vih)/2/vv=1.14797e-009


Date: Fri Jul 04 11:26:19 2025
Total elapsed time: 0.172 seconds.

tnom = 27
temp = 27
method = modified trap
totiter = 2589
traniter = 2583
tranpoints = 1244
accept = 1177
rejected = 67
matrix size = 8
fillins = 0
solver = Normal
Matrix Compiler1:      20 opcodes  0.1/[0.1]/0.1
Matrix Compiler2: off  [0.1]/0.1/0.1

