Circuit: * C:\Users\gratt\Documents\Uni\Session4\App4\S4_APP4_Info\s4iapp4_prob\nor_test.asc

Direct Newton iteration for .op point succeeded.

t1: time=4.01525e-009 at 4.01525e-009
t2: time=4.09792e-009 at 4.09792e-009
t3: time=1.10425e-009 at 1.10425e-009
t4: time=1.02061e-009 at 1.02061e-009
transition_up: abs(t2-t1)=8.26693e-011
transition_down: abs(t4-t3)=8.36393e-011
ratio: transition_up/transition_down=0.988403


Date: Thu Jul 03 15:03:38 2025
Total elapsed time: 0.134 seconds.

tnom = 27
temp = 27
method = modified trap
totiter = 2596
traniter = 2590
tranpoints = 1254
accept = 1185
rejected = 69
matrix size = 12
fillins = 0
solver = Normal
Matrix Compiler1: 642 bytes object code size  0.1/0.1/[0.1]
Matrix Compiler2: 1002 bytes object code size  0.1/0.1/[0.1]

