Circuit: * D:\Devoir ecole\Universiter\Session4_2025\App4\Prob\S4_APP4_Info\s4iapp4_prob\nor_test_Vm.asc

WARNING: Less than two connections to node nc_01.  This node is used by v2.

vil: d(v(out))=-1 AT 0.519323
vih: d(v(out))=-1 AT 0.909987
vi_mid: (vil+vih)/2=0.714655


Date: Thu Jul  3 23:35:03 2025
Total elapsed time: 0.080 seconds.

tnom = 27
temp = 27
method = trap
totiter = 371
traniter = 0
tranpoints = 0
accept = 0
rejected = 0
matrix size = 8
fillins = 0
solver = Normal
Avg thread counts: 12.7/0.0/16.0/12.7
Matrix Compiler1:      14 opcodes  0.1/[0.1]/0.1
Matrix Compiler2: 520 bytes object code size  0.1/0.1/[0.1]

