Circuit: * C:\Users\gratt\Documents\Uni\Session4\App4\S4_APP4_Info\s4iapp4_prob\nor_test_Vm.asc

WARNING: Less than two connections to node NC_01.  This node is used by V2.

vil: d(v(out))=-1 AT 0.519323
vih: d(v(out))=-1 AT 0.909987
vi_mid: (vil+vih)/2=0.714655


Date: Fri Jul 04 11:29:52 2025
Total elapsed time: 0.208 seconds.

tnom = 27
temp = 27
method = trap
totiter = 371
traniter = 0
tranpoints = 0
accept = 0
rejected = 0
matrix size = 8
fillins = 0
solver = Normal
Matrix Compiler1:      14 opcodes  0.1/[0.0]/0.1
Matrix Compiler2: off  [0.1]/0.1/0.1

