Circuit: * D:\Devoir ecole\Universiter\Session4_2025\App4\Prob\S4_APP4_Info\s4iapp4_prob\nor_test.asc

Direct Newton iteration for .op point succeeded.

t1: time=4.02802e-09 at 4.02802e-09
t2: time=4.13585e-09 at 4.13585e-09
t3: time=1.10829e-09 at 1.10829e-09
t4: time=1.02208e-09 at 1.02208e-09
transition_up: abs(t2-t1)=1.07828e-10
transition_down: abs(t4-t3)=8.62124e-11
ratio: transition_up/transition_down=1.25072


Date: Sun Jul  6 11:20:24 2025
Total elapsed time: 0.090 seconds.

tnom = 27
temp = 27
method = modified trap
totiter = 2649
traniter = 2643
tranpoints = 1262
accept = 1193
rejected = 69
matrix size = 8
fillins = 0
solver = Normal
Avg thread counts: 4.3/5.6/5.7/3.2
Matrix Compiler1:      20 opcodes  0.1/[0.1]/0.1
Matrix Compiler2: 664 bytes object code size  0.1/0.1/[0.1]

