Circuit: * D:\Devoir ecole\Universiter\Session4_2025\App4\Prob\S4_APP4_Info\s4iapp4_prob\nor_test.asc

Direct Newton iteration for .op point succeeded.

t1: time=4.02468e-09 at 4.02468e-09
t2: time=4.11871e-09 at 4.11871e-09
t3: time=1.09821e-09 at 1.09821e-09
t4: time=1.02087e-09 at 1.02087e-09
transition_up: abs(t2-t1)=9.40205e-11
transition_down: abs(t4-t3)=7.73449e-11
ratio: transition_up/transition_down=1.2156


Date: Sun Jul  6 16:43:26 2025
Total elapsed time: 0.097 seconds.

tnom = 27
temp = 27
method = modified trap
totiter = 2694
traniter = 2688
tranpoints = 1278
accept = 1205
rejected = 73
matrix size = 8
fillins = 0
solver = Normal
Avg thread counts: 4.3/5.5/5.6/3.2
Matrix Compiler1:      20 opcodes  0.1/[0.1]/0.1
Matrix Compiler2: 664 bytes object code size  0.1/0.1/[0.1]

