Circuit: * D:\Devoir ecole\Universiter\Session4_2025\App4\Prob\S4_APP4_Info\s4iapp4_prob\pad_buffer_test.asc

Direct Newton iteration for .op point succeeded.

t1: time=1.3728e-09 at 1.3728e-09
t2: time=1.45019e-09 at 1.45019e-09
t3: time=3.44654e-09 at 3.44654e-09
t4: time=3.37359e-09 at 3.37359e-09
transition_up: abs(t2-t1)=7.739e-11
transition_down: abs(t4-t3)=7.29487e-11


Date: Sun Jul  6 10:50:33 2025
Total elapsed time: 0.104 seconds.

tnom = 27
temp = 27
method = modified trap
totiter = 2814
traniter = 2804
tranpoints = 1264
accept = 1155
rejected = 109
matrix size = 12
fillins = 0
solver = Normal
Avg thread counts: 4.2/5.7/5.7/3.1
Matrix Compiler1:      44 opcodes  0.3/[0.1]/0.1
Matrix Compiler2: 1.04 KB object code size  0.1/0.1/[0.1]

