Circuit: * C:\Users\gratt\Documents\Uni\Session4\App4\S4_APP4_Info\s4iapp4_prob\xor_test.asc

Direct Newton iteration for .op point succeeded.

t1: time=1.03346e-009 at 1.03346e-009
t2: time=1.12132e-009 at 1.12132e-009
t3: time=2.14991e-009 at 2.14991e-009
t4: time=2.02015e-009 at 2.02015e-009
transition_up: abs(t2-t1)=8.78633e-011
transition_down: abs(t4-t3)=1.29764e-010
ratio: transition_up/transition_down=0.677101


Date: Wed Jul 02 16:43:49 2025
Total elapsed time: 0.408 seconds.

tnom = 27
temp = 27
method = modified trap
totiter = 3502
traniter = 3475
tranpoints = 1358
accept = 1259
rejected = 99
matrix size = 18
fillins = 4
solver = Normal
Matrix Compiler1: 1.65 KB object code size  0.3/0.2/[0.1]
Matrix Compiler2: off  [0.1]/0.2/0.2

