Circuit: * D:\Devoir ecole\Universiter\Session4_2025\App4\Prob\S4_APP4_Info\s4iapp4_prob\xor_test_Vm.asc

.dc sweep increment has wrong sign -- fixing...

vil: d(v(out))=1 AT 0.825029
vih: d(v(out))=1 AT 0.994939
vi_mid: (vil+vih)/2=0.909984


Date: Sun Jul  6 11:26:20 2025
Total elapsed time: 0.109 seconds.

tnom = 27
temp = 27
method = trap
totiter = 3626
traniter = 0
tranpoints = 0
accept = 0
rejected = 0
matrix size = 11
fillins = 0
solver = Normal
Avg thread counts: 4.7/0.0/4.3/2.6
Matrix Compiler1:      48 opcodes  0.2/[0.1]/0.1
Matrix Compiler2: 1.13 KB object code size  0.1/0.2/[0.1]

