Circuit: * C:\Users\gratt\Documents\Uni\Session4\App4\S4_APP4_Info\s4iapp4_prob\xor_test.asc

Direct Newton iteration for .op point succeeded.

t1: time=1.06612e-009 at 1.06612e-009
t2: time=1.19005e-009 at 1.19005e-009
t3: time=2.14492e-009 at 2.14492e-009
t4: time=2.0175e-009 at 2.0175e-009
transition_up: abs(t2-t1)=1.23938e-010
transition_down: abs(t4-t3)=1.27425e-010
ratio: transition_up/transition_down=0.972637


Date: Fri Jul 04 11:19:23 2025
Total elapsed time: 0.257 seconds.

tnom = 27
temp = 27
method = modified trap
totiter = 2764
traniter = 2746
tranpoints = 1280
accept = 1200
rejected = 80
matrix size = 13
fillins = 0
solver = Normal
Matrix Compiler1: 1014 bytes object code size  0.2/0.1/[0.1]
Matrix Compiler2: off  [0.1]/0.2/0.1

