Circuit: * D:\Devoir ecole\Universiter\Session4_2025\App4\Prob\S4_APP4_Info\s4iapp4_prob\xor_test.asc

Direct Newton iteration for .op point succeeded.

t1: time=1.06623e-09 at 1.06623e-09
t2: time=1.25371e-09 at 1.25371e-09
t3: time=2.27236e-09 at 2.27236e-09
t4: time=2.02226e-09 at 2.02226e-09
transition_up: abs(t2-t1)=1.87483e-10
transition_down: abs(t4-t3)=2.50091e-10
ratio: transition_up/transition_down=0.749658


Date: Sun Jul  6 11:25:55 2025
Total elapsed time: 0.109 seconds.

tnom = 27
temp = 27
method = modified trap
totiter = 2767
traniter = 2743
tranpoints = 1280
accept = 1205
rejected = 75
matrix size = 13
fillins = 0
solver = Normal
Avg thread counts: 4.9/5.7/5.6/3.1
Matrix Compiler1:      54 opcodes  0.2/[0.1]/0.1
Matrix Compiler2: 1.36 KB object code size  0.1/0.2/[0.1]

