Circuit: * D:\Devoir ecole\Universiter\Session4_2025\App4\Prob\S4_APP4_Info\s4iapp4_prob\xor_test.asc

Direct Newton iteration for .op point succeeded.

t1: time=1.04967e-09 at 1.04967e-09
t2: time=1.1722e-09 at 1.1722e-09
t3: time=2.13503e-09 at 2.13503e-09
t4: time=2.01607e-09 at 2.01607e-09
transition_up: abs(t2-t1)=1.22527e-10
transition_down: abs(t4-t3)=1.18954e-10
ratio: transition_up/transition_down=1.03004


Date: Thu Jul  3 10:27:35 2025
Total elapsed time: 0.114 seconds.

tnom = 27
temp = 27
method = modified trap
totiter = 3066
traniter = 3038
tranpoints = 1273
accept = 1200
rejected = 73
matrix size = 18
fillins = 4
solver = Normal
Avg thread counts: 4.1/5.7/5.6/2.9
Matrix Compiler1: 1.60 KB object code size  0.4/0.2/[0.2]
Matrix Compiler2: off  [0.2]/0.3/0.2

