Circuit: * C:\Users\gratt\Documents\Uni\Session4\App4\S4_APP4_Info\s4iapp4_prob\xor_test_Vm.asc

.dc sweep increment has wrong sign -- fixing...

vil: d(v(out))=1 AT 0.806918
vih: d(v(out))=1 AT 0.97595
vi_mid: (vil+vih)/2=0.891434


Date: Fri Jul 04 11:21:04 2025
Total elapsed time: 0.304 seconds.

tnom = 27
temp = 27
method = trap
totiter = 3622
traniter = 0
tranpoints = 0
accept = 0
rejected = 0
matrix size = 11
fillins = 0
solver = Normal
Matrix Compiler1: 878 bytes object code size  0.4/0.2/[0.2]
Matrix Compiler2: 1.08 KB object code size  0.2/0.2/[0.2]

