Circuit: * D:\Devoir ecole\Universiter\Session4_2025\App4\Prob\S4_APP4_Info\s4iapp4_prob\xor_test.asc

Direct Newton iteration for .op point succeeded.

t1: time=1.06612e-09 at 1.06612e-09
t2: time=1.19005e-09 at 1.19005e-09
t3: time=2.14492e-09 at 2.14492e-09
t4: time=2.0175e-09 at 2.0175e-09
transition_up: abs(t2-t1)=1.23938e-10
transition_down: abs(t4-t3)=1.27425e-10
ratio: transition_up/transition_down=0.972637


Date: Thu Jul  3 23:24:13 2025
Total elapsed time: 0.137 seconds.

tnom = 27
temp = 27
method = modified trap
totiter = 2764
traniter = 2746
tranpoints = 1280
accept = 1200
rejected = 80
matrix size = 13
fillins = 0
solver = Normal
Avg thread counts: 4.9/5.5/5.6/3.1
Matrix Compiler1:      53 opcodes  0.3/[0.2]/0.2
Matrix Compiler2: 1.33 KB object code size  0.2/0.2/[0.1]

