Circuit: * C:\Users\gratt\Documents\Uni\Session4\App4\S4_APP4_Info\s4iapp4_prob\nand_test.asc

WARNING: Less than two connections to node NC_01.  This node is used by V2.

vil: d(v(out))=-1 AT 0.820137
vih: d(v(out))=-1 AT 1.23049
vi_mid: (vil+vih)/2=1.02531


Date: Thu Jul 03 13:32:16 2025
Total elapsed time: 0.201 seconds.

tnom = 27
temp = 27
method = trap
totiter = 369
traniter = 0
tranpoints = 0
accept = 0
rejected = 0
matrix size = 8
fillins = 0
solver = Normal
Matrix Compiler1: 264 bytes object code size  0.1/0.1/[0.1]
Matrix Compiler2: off  [0.1]/0.1/0.1

